
     RDKit          3D

 30 32  0  0  0  0  0  0  0  0999 V2000
    9.3236   -4.9608  -14.3164 P   0  0  0  0  0  0  0  0  0  0  0  0
   13.5028   -6.5418  -10.7865 O   0  0  0  0  0  0  0  0  0  0  0  0
   10.7811   -4.0743   -5.5740 N   0  0  0  0  0  0  0  0  0  0  0  0
    9.7329   -4.4809   -9.8674 C   0  0  0  0  0  0  0  0  0  0  0  0
   11.2045   -4.3686   -8.2425 C   0  0  0  0  0  0  0  0  0  0  0  0
   13.6763   -4.2684   -7.8101 C   0  0  0  0  0  0  0  0  0  0  0  0
   11.6484   -5.9034  -14.8075 C   0  0  0  0  0  0  0  0  0  0  0  0
    9.2920   -2.7529  -16.7181 O   0  0  0  0  0  1  0  0  0  0  0  0
    9.7063   -4.1320   -6.3914 C   0  0  0  0  0  0  0  0  0  0  0  0
   12.2041   -6.0301  -11.0249 C   0  0  0  0  0  0  0  0  0  0  0  0
    7.9352   -2.9995  -16.1069 P   0  0  0  0  0  4  0  0  0  0  0  0
   12.0675   -5.4786  -13.4193 C   0  0  0  0  0  0  0  0  0  0  0  0
    8.7440   -5.6900  -13.1751 O   0  0  0  0  0  0  0  0  0  0  0  0
    7.5114   -1.9045  -15.1981 O   0  0  0  0  0  0  0  0  0  0  0  0
   12.9917   -4.0029   -5.1683 O   0  0  0  0  0  0  0  0  0  0  0  0
   10.4065   -5.4827  -15.2775 O   0  0  0  0  0  0  0  0  0  0  0  0
   11.4635   -4.1184  -13.1497 C   0  0  0  0  0  0  0  0  0  0  0  0
    9.9550   -4.2670   -7.7541 C   0  0  0  0  0  0  0  0  0  0  0  0
   11.6477   -3.7867  -11.7757 O   0  0  0  0  0  0  0  0  0  0  0  0
   12.2946   -4.2752   -7.3742 C   0  0  0  0  0  0  0  0  0  0  0  0
   12.0468   -4.1216   -6.0148 C   0  0  0  0  0  0  0  0  0  0  0  0
    8.5782   -4.0749   -5.9169 O   0  0  0  0  0  0  0  0  0  0  0  0
   12.0327   -4.5964  -10.7116 C   0  0  0  0  0  0  0  0  0  0  0  0
    8.1699   -4.3032  -15.2145 O   0  0  0  0  0  0  0  0  0  0  0  0
    9.0504   -4.3351   -8.7666 N   0  0  0  0  0  0  0  0  0  0  0  0
    6.9137   -3.3338  -17.1397 O   0  0  0  0  0  0  0  0  0  0  0  0
   10.2153   -3.7933  -13.7394 O   0  0  0  0  0  0  0  0  0  0  0  0
   11.6324   -6.3839  -12.3321 C   0  0  0  0  0  0  0  0  0  0  0  0
   11.0384   -4.5109   -9.6219 N   0  0  0  0  0  0  0  0  0  0  0  0
   13.4956   -5.3294  -13.3784 O   0  0  0  0  0  0  0  0  0  0  0  0
  1 13  1  0
  1 16  1  0
  1 24  1  0
  2 10  1  0
  3  9  1  0
  3 21  1  0
  4 25  2  0
  4 29  1  0
  5 18  2  0
  5 20  1  0
  5 29  1  0
  6 20  1  0
  7 12  1  0
  7 16  1  0
  8 11  2  0
  9 18  1  0
  9 22  2  0
 10 23  1  0
 10 28  1  0
 11 14  1  0
 11 24  1  0
 11 26  1  0
 12 17  1  0
 12 28  1  0
 12 30  1  0
 15 21  2  0
 17 19  1  0
 17 27  2  0
 18 25  1  0
 19 23  1  0
 20 21  1  0
 23 29  1  0
M  END
>  <QED>  (1) 
0.153

>  <LogP>  (1) 
-1.86

>  <SA_SCORE>  (1) 
5.48

>  <Lipinski>  (1) 
2

>  <SMILES>  (1) 
CC1C(=O)NC(=O)c2ncn(C3OC(=O)C(O)(COP(O)OP(=O)(O)O)CC3O)c21

>  <Target>  (1) 
KRAS G12C

>  <UniProt>  (1) 
P01116

>  <PDB>  (1) 
7RPZ

>  <Generation_Date>  (1) 
2026-03-14

$$$$
