
     RDKit          3D

 31 33  0  0  0  0  0  0  0  0999 V2000
    9.3413   -4.5314   -8.4891 N   0  0  0  0  0  0  0  0  0  0  0  0
    9.1682   -3.4942  -14.9929 O   0  0  0  0  0  0  0  0  0  0  0  0
   10.1219   -4.6959  -15.4359 P   0  0  0  0  0  0  0  0  0  0  0  0
    9.6542   -8.2208  -13.6226 O   0  0  0  0  0  1  0  0  0  0  0  0
   10.5160   -7.0654  -13.9397 P   0  0  0  0  0  4  0  0  0  0  0  0
    7.9819   -2.8919  -15.8651 P   0  0  0  0  0  4  0  0  0  0  0  0
   10.9496   -6.3408  -12.6076 O   0  0  0  0  0  0  0  0  0  0  0  0
   11.3123   -3.7087  -13.3860 C   0  0  0  0  0  0  0  0  0  0  0  0
   11.0829   -3.7909   -5.3221 N   0  0  0  0  0  0  0  0  0  0  0  0
   11.4088   -4.5010   -9.2559 N   0  0  0  0  0  0  0  0  0  0  0  0
   13.4864   -6.9419  -10.5680 O   0  0  0  0  0  0  0  0  0  0  0  0
    7.2814   -1.8082  -15.1262 O   0  0  0  0  0  1  0  0  0  0  0  0
    9.9742   -4.1070   -6.0684 C   0  0  0  0  0  0  0  0  0  0  0  0
   11.6664   -7.3521  -14.8411 O   0  0  0  0  0  0  0  0  0  0  0  0
   12.4177   -6.0614  -10.8417 C   0  0  0  0  0  0  0  0  0  0  0  0
   10.1934   -4.7936  -16.9080 O   0  0  0  0  0  0  0  0  0  0  0  0
   12.3053   -3.6905   -5.8301 C   0  0  0  0  0  0  0  0  0  0  0  0
   12.5485   -3.9183   -7.1261 N   0  0  0  0  0  0  0  0  0  0  0  0
    8.5546   -2.4192  -17.1505 O   0  0  0  0  0  0  0  0  0  0  0  0
    8.8509   -4.1745   -5.5648 O   0  0  0  0  0  0  0  0  0  0  0  0
   14.0092   -4.5639   -9.9583 O   0  0  0  0  0  0  0  0  0  0  0  0
    7.1296   -4.1103  -15.9930 O   0  0  0  0  0  0  0  0  0  0  0  0
   11.4839   -4.2324   -7.9110 C   0  0  0  0  0  0  0  0  0  0  0  0
   11.4069   -4.2028  -14.6985 O   0  0  0  0  0  0  0  0  0  0  0  0
   12.2215   -5.8374  -12.3136 C   0  0  0  0  0  0  0  0  0  0  0  0
   12.5804   -4.6928  -10.1966 C   0  0  0  0  0  0  0  0  0  0  0  0
    9.6131   -5.9382  -14.6437 O   0  0  0  0  0  0  0  0  0  0  0  0
   12.2878   -3.7272  -11.2487 O   0  0  0  0  0  0  0  0  0  0  0  0
   12.3804   -4.3458  -12.5231 C   0  0  0  0  0  0  0  0  0  0  0  0
   10.1119   -4.6116   -9.5593 C   0  0  0  0  0  0  0  0  0  0  0  0
   10.1997   -4.3053   -7.4477 C   0  0  0  0  0  0  0  0  0  0  0  0
  1 30  2  0
  1 31  1  0
  2  3  1  0
  2  6  1  0
  3 16  1  0
  3 27  1  0
  4  5  2  0
  5  7  1  0
  5 14  1  0
  5 27  1  0
  6 12  2  0
  6 19  1  0
  6 22  1  0
  7 25  1  0
  8 24  1  0
  8 29  1  0
  9 13  1  0
  9 17  2  0
 10 23  1  0
 10 26  1  0
 10 30  1  0
 11 15  1  0
 13 20  2  0
 13 31  1  0
 15 25  1  0
 15 26  1  0
 17 18  1  0
 18 23  2  0
 21 26  1  0
 23 31  1  0
 25 29  1  0
 26 28  1  0
 28 29  1  0
M  END
>  <QED>  (1) 
0.160

>  <LogP>  (1) 
-3.11

>  <SA_SCORE>  (1) 
6.08

>  <Lipinski>  (1) 
0

>  <SMILES>  (1) 
O=C1N=CN=C2C1N=CN2C1(O)OC(CO)C(OP(=O)(O)OP(O)OP(=O)(O)O)C1O

>  <Target>  (1) 
KRAS G12C

>  <UniProt>  (1) 
P01116

>  <PDB>  (1) 
7RPZ

>  <Generation_Date>  (1) 
2026-03-14

$$$$
